<?xml version="1.0" encoding="UTF-8"?>

<!-- generated on 2025-10-23 17:56:28 by Eclipse SUMO netedit Version 1.20.0
<configuration xmlns:xsi="http://www.w3.org/2001/XMLSchema-instance" xsi:noNamespaceSchemaLocation="http://sumo.dlr.de/xsd/neteditConfiguration.xsd">

    <input>
        <sumo-net-file value="F:\PythonProject\zlcircle\map.net.xml"/>
    </input>

    <output>
        <output-file value="F:\PythonProject\zlcircle\map.net.xml"/>
    </output>

    <processing>
        <geometry.min-radius.fix.railways value="false"/>
        <geometry.max-grade.fix value="false"/>
        <offset.disable-normalization value="true"/>
        <lefthand value="0"/>
    </processing>

    <junctions>
        <no-turnarounds value="true"/>
        <junctions.corner-detail value="5"/>
        <junctions.limit-turn-speed value="5.50"/>
        <rectangular-lane-cut value="0"/>
    </junctions>

    <pedestrian>
        <walkingareas value="0"/>
    </pedestrian>

</configuration>
-->

<net version="1.20" junctionCornerDetail="5" limitTurnSpeed="5.50" xmlns:xsi="http://www.w3.org/2001/XMLSchema-instance" xsi:noNamespaceSchemaLocation="http://sumo.dlr.de/xsd/net_file.xsd">

    <location netOffset="-307097.31,-3776526.91" convBoundary="2335.50,0.00,9572.32,29429.40" origBoundary="108.905323,34.112228,109.009019,34.377574" projParameter="+proj=utm +zone=49 +ellps=WGS84 +datum=WGS84 +units=m +no_defs"/>

    <type id="highway.primary" priority="12" numLanes="2" speed="27.78"   oneway="0"/>

    <edge id=":11603195025_0" function="internal">
        <lane id=":11603195025_0_0" index="0"   speed="27.78" length="7.58" shape="3464.56,16425.99 3466.12,16427.47 3467.47,16428.16 3468.88,16428.80 3470.62,16430.10"/>
        <lane id=":11603195025_0_1" index="1"   speed="27.78" length="7.58" shape="3462.10,16428.04 3463.73,16429.60 3465.14,16430.36 3466.60,16431.05 3468.43,16432.43"/>
    </edge>
    <edge id=":11603195026_0" function="internal">
        <lane id=":11603195026_0_0" index="0"   speed="27.78" length="7.68" shape="3423.73,16432.62 3424.98,16430.86 3425.48,16429.43 3425.93,16427.95 3427.01,16426.05"/>
        <lane id=":11603195026_0_1" index="1"   speed="27.78" length="7.68" shape="3426.10,16434.77 3427.42,16432.94 3427.97,16431.45 3428.46,16429.91 3429.59,16427.94"/>
        <lane id=":11603195026_0_2" index="2"   speed="27.78" length="7.68" shape="3426.10,16434.77 3427.84,16433.21 3429.26,16432.39 3430.63,16431.52 3432.18,16429.82"/>
    </edge>
    <edge id=":286622553_0" function="internal">
        <lane id=":286622553_0_0" index="0" speed="22.26" length="18.53" shape="3384.88,16463.15 3389.54,16460.97 3392.80,16459.44 3395.60,16457.36 3398.88,16453.54"/>
        <lane id=":286622553_0_1" index="1" speed="23.05" length="18.53" shape="3386.50,16465.91 3391.49,16463.56 3394.96,16461.87 3397.93,16459.59 3401.44,16455.47"/>
        <lane id=":286622553_0_2" index="2" speed="23.82" length="18.53" shape="3388.13,16468.67 3393.44,16466.14 3397.12,16464.29 3400.27,16461.81 3403.99,16457.39"/>
    </edge>
    <edge id=":286622553_3" function="internal">
        <lane id=":286622553_3_0" index="0" speed="27.78" length="21.04" shape="3391.15,16473.77 3392.54,16467.39 3393.55,16462.96 3395.29,16458.87 3398.88,16453.54"/>
        <lane id=":286622553_3_1" index="1" speed="27.78" length="21.04" shape="3394.11,16475.16 3395.43,16468.96 3396.35,16464.63 3397.98,16460.65 3401.44,16455.47"/>
        <lane id=":286622553_3_2" index="2" speed="27.78" length="21.04" shape="3397.06,16476.54 3398.31,16470.52 3399.15,16466.31 3400.67,16462.43 3403.99,16457.39"/>
        <lane id=":286622553_3_3" index="3" speed="18.15" length="21.04" shape="3400.05,16477.94 3400.40,16471.98 3401.22,16467.89 3403.09,16464.16 3406.55,16459.31"/>
    </edge>
    <edge id=":286622555_0" function="internal">
        <lane id=":286622555_0_0" index="0"   speed="27.78" length="8.07" shape="3476.94,16435.21 3479.21,16436.16 3481.08,16436.12 3482.93,16436.10 3485.16,16437.12"/>
        <lane id=":286622555_0_1" index="1"   speed="27.78" length="8.07" shape="3475.41,16438.04 3477.58,16438.92 3479.37,16438.83 3481.14,16438.76 3483.27,16439.70"/>
        <lane id=":286622555_0_2" index="2"   speed="27.78" length="8.07" shape="3475.41,16438.04 3481.38,16442.28"/>
    </edge>
    <edge id=":286622555_3" function="internal">
        <lane id=":286622555_3_0" index="0" speed="27.78" length="7.52" shape="3478.26,16432.75 3480.39,16433.91 3481.83,16434.75 3483.20,16435.69 3485.16,16437.12"/>
        <lane id=":286622555_3_1" index="1" speed="27.78" length="7.52" shape="3476.74,16435.57 3478.76,16436.66 3480.12,16437.46 3481.42,16438.34 3483.27,16439.70"/>
        <lane id=":286622555_3_2" index="2" speed="27.78" length="7.52" shape="3475.22,16438.38 3477.13,16439.41 3478.40,16440.17 3479.63,16441.00 3481.38,16442.28"/>
        <lane id=":286622555_3_3" index="3" speed="27.78" length="7.52" shape="3473.71,16441.20 3475.49,16442.17 3476.69,16442.88 3477.84,16443.66 3479.49,16444.86"/>
    </edge>
    <edge id=":3004087875_0" function="internal">
        <lane id=":3004087875_0_0" index="0" speed="27.78" length="1.84" shape="3386.84,16462.14 3384.70,16463.24"/>
        <lane id=":3004087875_0_1" index="1" speed="27.78" length="1.84" shape="3387.95,16465.14 3386.32,16466.00"/>
        <lane id=":3004087875_0_2" index="2" speed="27.78" length="1.84" shape="3389.07,16468.13 3387.95,16468.76"/>
    </edge>
    <edge id=":310347676_0" function="internal">
        <lane id=":310347676_0_0" index="0"   speed="27.78" length="9.79" shape="3411.68,16439.20 3413.84,16437.96 3415.71,16437.79 3417.60,16437.64 3419.81,16436.44"/>
        <lane id=":310347676_0_1" index="1"   speed="27.78" length="9.79" shape="3411.68,16439.20 3414.33,16438.19 3416.73,16439.01 3419.15,16439.86 3421.85,16438.91"/>
    </edge>
    <edge id=":310347676_2" function="internal">
        <lane id=":310347676_2_0" index="0" speed="27.78" length="7.91" shape="3411.68,16439.20 3413.47,16437.63 3414.75,16436.60 3416.11,16435.68 3418.14,16434.43"/>
        <lane id=":310347676_2_1" index="1" speed="27.78" length="7.91" shape="3413.79,16441.60 3415.57,16440.05 3416.84,16439.05 3418.19,16438.15 3420.21,16436.92"/>
        <lane id=":310347676_2_2" index="2" speed="27.78" length="7.91" shape="3415.91,16444.00 3417.67,16442.47 3418.94,16441.50 3420.28,16440.63 3422.27,16439.41"/>
        <lane id=":310347676_2_3" index="3" speed="27.78" length="7.91" shape="3418.03,16446.40 3419.77,16444.90 3421.03,16443.95 3422.36,16443.10 3424.33,16441.90"/>
    </edge>
    <edge id=":311003940_0" function="internal">
        <lane id=":311003940_0_0" index="0" speed="17.68" length="20.69" shape="3502.50,16457.17 3505.90,16462.12 3509.05,16464.89 3512.96,16466.79 3518.66,16469.08"/>
        <lane id=":311003940_0_1" index="1" speed="17.73" length="20.81" shape="3502.50,16457.17 3505.58,16462.54 3507.98,16466.20 3511.16,16468.97 3516.55,16471.67"/>
        <lane id=":311003940_0_2" index="2" speed="18.07" length="21.62" shape="3502.50,16457.17 3505.28,16463.04 3506.88,16467.55 3509.28,16471.13 3514.44,16474.25"/>
    </edge>
    <edge id=":311003940_3" function="internal">
        <lane id=":311003940_3_0" index="0" speed="25.55" length="21.82" shape="3502.50,16457.17 3505.76,16462.92 3507.47,16467.16 3508.30,16471.68 3508.92,16478.29"/>
        <lane id=":311003940_3_1" index="1" speed="25.33" length="21.82" shape="3499.76,16458.82 3502.92,16464.47 3504.52,16468.66 3505.25,16473.13 3505.82,16479.63"/>
        <lane id=":311003940_3_2" index="2" speed="25.10" length="21.82" shape="3497.01,16460.47 3500.08,16466.03 3501.57,16470.16 3502.21,16474.58 3502.73,16480.97"/>
        <lane id=":311003940_3_3" index="3" speed="24.87" length="21.82" shape="3494.27,16462.11 3497.25,16467.58 3498.62,16471.67 3499.16,16476.02 3499.64,16482.31"/>
    </edge>
    <edge id=":311003961_0" function="internal">
        <lane id=":311003961_0_0" index="0" speed="19.06" length="22.44" shape="3518.16,16502.32 3512.31,16504.77 3508.26,16506.68 3504.95,16509.44 3501.32,16514.44"/>
        <lane id=":311003961_0_1" index="1" speed="19.55" length="22.44" shape="3516.16,16499.71 3510.03,16502.33 3505.83,16504.43 3502.40,16507.43 3498.61,16512.74"/>
        <lane id=":311003961_0_2" index="2" speed="20.04" length="22.44" shape="3514.16,16497.10 3507.75,16499.89 3503.39,16502.18 3499.86,16505.42 3495.90,16511.04"/>
    </edge>
    <edge id=":311003961_3" function="internal">
        <lane id=":311003961_3_0" index="0" speed="27.38" length="22.71" shape="3508.70,16492.81 3507.79,16499.61 3506.74,16504.25 3504.83,16508.57 3501.32,16514.44"/>
        <lane id=":311003961_3_1" index="1" speed="27.17" length="22.71" shape="3505.66,16491.36 3504.80,16498.07 3503.84,16502.66 3502.04,16506.95 3498.61,16512.74"/>
        <lane id=":311003961_3_2" index="2" speed="26.97" length="22.71" shape="3502.62,16489.91 3501.80,16496.53 3500.94,16501.07 3499.24,16505.32 3495.90,16511.04"/>
        <lane id=":311003961_3_3" index="3" speed="21.10" length="22.71" shape="3499.58,16488.46 3499.31,16495.02 3498.48,16499.52 3496.61,16503.71 3493.19,16509.33"/>
    </edge>
    <edge id=":311003978_0" function="internal">
        <lane id=":311003978_0_0" index="0" speed="20.88" length="21.57" shape="3479.83,16536.26 3474.90,16540.18 3472.09,16543.54 3470.10,16547.56 3467.61,16553.46"/>
        <lane id=":311003978_0_1" index="1" speed="20.81" length="21.42" shape="3479.83,16536.26 3474.53,16539.81 3470.86,16542.40 3468.00,16545.64 3465.12,16551.16"/>
        <lane id=":311003978_0_2" index="2" speed="21.07" length="21.97" shape="3479.83,16536.26 3474.09,16539.47 3469.59,16541.23 3465.91,16543.65 3462.64,16548.86"/>
    </edge>
    <edge id=":311003978_3" function="internal">
        <lane id=":311003978_3_0" index="0" speed="27.78" length="22.41" shape="3479.83,16536.26 3474.18,16539.83 3469.86,16541.47 3465.19,16542.31 3458.49,16543.47"/>
        <lane id=":311003978_3_1" index="1" speed="20.40" length="22.41" shape="3477.97,16533.66 3472.44,16537.36 3468.22,16539.27 3463.62,16540.09 3456.94,16540.52"/>
        <lane id=":311003978_3_2" index="2" speed="20.23" length="22.41" shape="3476.11,16531.05 3470.66,16534.63 3466.47,16536.37 3461.90,16537.05 3455.32,16537.41"/>
        <lane id=":311003978_3_3" index="3" speed="20.06" length="22.41" shape="3474.25,16528.45 3468.87,16531.90 3464.71,16533.48 3460.18,16534.00 3453.69,16534.30"/>
    </edge>
    <edge id=":311003994_0" function="internal">
        <lane id=":311003994_0_0" index="0" speed="27.78" length="35.70" shape="3436.69,16555.19 3431.99,16547.15 3426.84,16541.88 3420.32,16537.03 3411.55,16530.28"/>
        <lane id=":311003994_0_1" index="1" speed="27.78" length="35.70" shape="3438.91,16552.40 3434.18,16544.42 3428.95,16539.25 3422.38,16534.51 3413.59,16527.82"/>
        <lane id=":311003994_0_2" index="2" speed="27.78" length="35.70" shape="3441.03,16549.74 3435.65,16542.13 3430.46,16536.98 3424.21,16532.12 3415.64,16525.36"/>
    </edge>
    <edge id=":311003994_3" function="internal">
        <lane id=":311003994_3_0" index="0" speed="24.59" length="36.16" shape="3444.81,16543.85 3434.01,16542.64 3426.65,16540.74 3420.06,16537.01 3411.55,16530.28"/>
        <lane id=":311003994_3_1" index="1" speed="24.39" length="36.16" shape="3446.49,16540.80 3435.83,16539.66 3428.54,16537.93 3421.99,16534.38 3413.59,16527.82"/>
        <lane id=":311003994_3_2" index="2" speed="24.20" length="36.16" shape="3448.16,16537.74 3437.65,16536.68 3430.42,16535.11 3423.93,16531.76 3415.64,16525.36"/>
        <lane id=":311003994_3_3" index="3" speed="20.16" length="36.16" shape="3449.93,16534.51 3439.52,16534.64 3432.33,16533.17 3425.88,16529.47 3417.68,16522.90"/>
    </edge>
    <edge id=":311004007_0" function="internal">
        <lane id=":311004007_0_0" index="0" speed="27.78" length="17.58" shape="3395.25,16509.70 3392.32,16505.47 3389.76,16503.01 3386.76,16500.93 3382.54,16497.84"/>
        <lane id=":311004007_0_1" index="1" speed="27.78" length="17.96" shape="3395.25,16509.70 3392.63,16505.05 3390.84,16501.79 3388.61,16498.93 3384.67,16495.43"/>
        <lane id=":311004007_0_2" index="2" speed="27.78" length="19.05" shape="3395.25,16509.70 3392.91,16504.55 3391.95,16500.55 3390.52,16496.97 3386.80,16493.03"/>
    </edge>
    <edge id=":311004007_3" function="internal">
        <lane id=":311004007_3_0" index="0" speed="19.76" length="21.83" shape="3395.25,16509.70 3391.95,16503.90 3390.32,16499.53 3389.85,16494.86 3390.03,16488.16"/>
        <lane id=":311004007_3_1" index="1" speed="19.50" length="21.83" shape="3397.99,16508.04 3394.83,16502.38 3393.37,16498.10 3393.04,16493.53 3393.28,16486.99"/>
        <lane id=":311004007_3_2" index="2" speed="19.23" length="21.83" shape="3400.72,16506.38 3397.71,16500.86 3396.43,16496.67 3396.24,16492.20 3396.53,16485.83"/>
        <lane id=":311004007_3_3" index="3" speed="18.97" length="21.83" shape="3403.46,16504.72 3400.59,16499.34 3399.48,16495.24 3399.44,16490.87 3399.78,16484.66"/>
    </edge>
    <edge id=":311004016_0" function="internal">
        <lane id=":311004016_0_0" index="0" speed="27.78" length="2.45" shape="3382.38,16497.72 3384.83,16499.46"/>
        <lane id=":311004016_0_1" index="1" speed="27.78" length="2.45" shape="3384.51,16495.31 3386.50,16496.74"/>
        <lane id=":311004016_0_2" index="2" speed="27.78" length="2.45" shape="3386.64,16492.90 3388.18,16494.01"/>
    </edge>

    <edge id="254489534" from="311461939" to="311003994" priority="12" type="highway.primary" spreadType="center" shape="3446.43,16579.82 3445.73,16572.71 3444.23,16565.72 3441.97,16558.93 3438.94,16552.45 3434.84,16545.79 3429.93,16539.68 3424.32,16534.21 3418.08,16529.47">
        <lane id="254489534_0" index="0" speed="27.78" length="28.64" shape="3443.25,16580.13 3442.56,16573.20 3441.14,16566.56 3438.99,16560.12 3436.69,16555.19"/>
        <lane id="254489534_1" index="1" speed="27.78" length="28.64" shape="3446.43,16579.82 3445.73,16572.71 3444.23,16565.72 3441.97,16558.93 3438.91,16552.40"/>
        <lane id="254489534_2" index="2" speed="27.78" length="28.64" shape="3449.61,16579.51 3448.90,16572.22 3447.32,16564.88 3444.95,16557.74 3441.76,16550.93 3441.03,16549.74"/>
    </edge>
    <edge id="257224672#0.39" from="J1" to="3004087875" priority="12" type="highway.primary" spreadType="center" shape="3349.15,16470.11 3353.03,16470.28 3360.21,16470.72 3367.40,16470.41 3374.51,16469.35 3381.47,16467.55 3388.21,16465.04">
        <lane id="257224672#0.39_0" index="0" speed="27.78" length="39.57" shape="3349.29,16466.91 3353.20,16467.08 3360.24,16467.52 3367.09,16467.22 3373.87,16466.21 3380.51,16464.49 3386.84,16462.14"/>
        <lane id="257224672#0.39_1" index="1" speed="27.78" length="39.57" shape="3349.15,16470.11 3353.03,16470.28 3360.21,16470.72 3367.40,16470.41 3374.51,16469.35 3381.47,16467.55 3387.95,16465.14"/>
        <lane id="257224672#0.39_2" index="2" speed="27.78" length="39.57" shape="3349.01,16473.31 3352.86,16473.48 3360.18,16473.92 3367.71,16473.60 3375.15,16472.49 3382.43,16470.61 3389.07,16468.13"/>
    </edge>
    <edge id="257224672#1" from="3004087875" to="286622553" priority="12" type="highway.primary" spreadType="center" shape="3388.21,16465.04 3395.66,16461.25 3402.60,16456.58">
        <lane id="257224672#1_0" index="0" speed="27.78" length="0.20" shape="3384.70,16463.24 3384.88,16463.15"/>
        <lane id="257224672#1_1" index="1" speed="27.78" length="0.20" shape="3386.32,16466.00 3386.50,16465.91"/>
        <lane id="257224672#1_2" index="2" speed="27.78" length="0.20" shape="3387.95,16468.76 3388.13,16468.67"/>
    </edge>
    <edge id="28258941#1.641" from="J2" to="11603195025" priority="12" type="highway.primary" spreadType="center" shape="3451.59,16393.48 3451.62,16394.42 3452.61,16401.15 3454.39,16407.71 3456.65,16413.45 3459.50,16418.91 3462.93,16424.04 3466.88,16428.78">
        <lane id="28258941#1.641_0" index="0" speed="27.78" length="35.58" shape="3454.79,16393.38 3454.81,16394.14 3455.75,16400.50 3457.43,16406.70 3459.57,16412.12 3462.26,16417.28 3465.50,16422.12 3467.01,16423.94"/>
        <lane id="28258941#1.641_1" index="1" speed="27.78" length="35.58" shape="3451.59,16393.48 3451.62,16394.42 3452.61,16401.15 3454.39,16407.71 3456.65,16413.45 3459.50,16418.91 3462.93,16424.04 3464.56,16425.99"/>
        <lane id="28258941#1.641_2" index="2" speed="27.78" length="35.58" shape="3448.39,16393.58 3448.43,16394.70 3449.47,16401.80 3451.35,16408.72 3453.73,16414.78 3456.74,16420.54 3460.36,16425.96 3462.10,16428.04"/>
    </edge>
    <edge id="28258941#2" from="11603195025" to="286622555" priority="12" type="highway.primary" spreadType="center" shape="3466.88,16428.78 3472.67,16434.22 3479.22,16438.71">
        <lane id="28258941#2_0" index="0"   speed="27.78" length="8.56" shape="3470.62,16430.10 3473.68,16432.97 3476.94,16435.21"/>
        <lane id="28258941#2_1" index="1"   speed="27.78" length="8.56" shape="3468.43,16432.43 3471.66,16435.47 3475.41,16438.04"/>
    </edge>
    <edge id="28258942#0" from="310347676" to="11603195026" priority="12" type="highway.primary" spreadType="center" shape="3417.57,16440.40 3422.82,16436.01 3427.41,16430.94">
        <lane id="28258942#0_0" index="0"   speed="27.78" length="5.72" shape="3419.81,16436.44 3421.71,16434.85 3423.73,16432.62"/>
        <lane id="28258942#0_1" index="1"   speed="27.78" length="5.72" shape="3421.85,16438.91 3423.93,16437.17 3426.10,16434.77"/>
    </edge>
    <edge id="28258942#1" from="11603195026" to="J3" priority="12" type="highway.primary" spreadType="center" shape="3427.41,16430.94 3430.85,16426.21 3433.84,16421.19 3436.32,16415.90 3438.68,16409.02 3440.20,16401.91 3440.87,16394.67 3440.84,16393.15">
        <lane id="28258942#1_0" index="0" speed="27.78" length="37.16" shape="3427.01,16426.05 3428.18,16424.45 3431.01,16419.69 3433.35,16414.70 3435.59,16408.16 3437.03,16401.43 3437.67,16394.55 3437.64,16393.21"/>
        <lane id="28258942#1_1" index="1" speed="27.78" length="37.16" shape="3429.59,16427.94 3430.85,16426.21 3433.84,16421.19 3436.32,16415.90 3438.68,16409.02 3440.20,16401.91 3440.87,16394.67 3440.84,16393.15"/>
        <lane id="28258942#1_2" index="2" speed="27.78" length="37.16" shape="3432.18,16429.82 3433.52,16427.97 3436.67,16422.69 3439.29,16417.10 3441.77,16409.88 3443.37,16402.39 3444.07,16394.79 3444.04,16393.09"/>
    </edge>
    <edge id="28296475#0" from="311004007" to="311004016" priority="12" type="highway.primary" spreadType="center" shape="3400.45,16509.02 3396.20,16504.59 3391.60,16500.53 3386.69,16496.85">
        <lane id="28296475#0_0" index="0" speed="27.78" length="0.20" shape="3382.54,16497.84 3382.38,16497.72"/>
        <lane id="28296475#0_1" index="1" speed="27.78" length="0.20" shape="3384.67,16495.43 3384.51,16495.31"/>
        <lane id="28296475#0_2" index="2" speed="27.78" length="0.20" shape="3386.80,16493.03 3386.64,16492.90"/>
    </edge>
    <edge id="28296475#1" from="311004016" to="J0" priority="12" type="highway.primary" spreadType="center" shape="3386.69,16496.85 3380.47,16493.02 3373.90,16489.81 3367.04,16487.25 3359.97,16485.37 3352.75,16484.19 3349.41,16484.09">
        <lane id="28296475#1_0" index="0" speed="27.78" length="39.69" shape="3384.83,16499.46 3378.93,16495.83 3372.64,16492.75 3366.07,16490.30 3359.30,16488.50 3352.44,16487.38 3349.31,16487.29"/>
        <lane id="28296475#1_1" index="1" speed="27.78" length="39.69" shape="3386.50,16496.74 3380.47,16493.02 3373.90,16489.81 3367.04,16487.25 3359.97,16485.37 3352.75,16484.19 3349.41,16484.09"/>
        <lane id="28296475#1_2" index="2" speed="27.78" length="39.69" shape="3388.18,16494.01 3382.01,16490.21 3375.16,16486.87 3368.01,16484.20 3360.64,16482.24 3353.06,16481.00 3349.51,16480.89"/>
    </edge>
    <edge id="28358444" from="311003978" to="311461960" priority="12" type="highway.primary" spreadType="center" shape="3479.52,16530.58 3474.57,16535.81 3470.24,16541.56 3466.61,16547.77 3463.72,16554.36 3461.82,16560.45 3460.57,16566.70 3459.97,16573.05 3460.02,16579.42">
        <lane id="28358444_0" index="0" speed="27.78" length="29.00" shape="3467.61,16553.46 3466.72,16555.48 3464.92,16561.24 3463.74,16567.17 3463.17,16573.19 3463.22,16579.39"/>
        <lane id="28358444_1" index="1" speed="27.78" length="29.00" shape="3465.12,16551.16 3463.72,16554.36 3461.82,16560.45 3460.57,16566.70 3459.97,16573.05 3460.02,16579.42"/>
        <lane id="28358444_2" index="2" speed="27.78" length="29.00" shape="3462.64,16548.86 3460.72,16553.24 3458.72,16559.66 3457.40,16566.23 3456.77,16572.91 3456.82,16579.45"/>
    </edge>
    <edge id="28484384#4.553" from="J5" to="311003961" priority="12" type="highway.primary" spreadType="center" shape="3543.25,16493.18 3542.99,16493.18 3535.21,16493.97 3527.57,16495.55 3520.13,16497.93 3512.06,16501.55 3504.49,16506.08 3497.52,16511.47">
        <lane id="28484384#4.553_0" index="0" speed="27.78" length="28.04" shape="3543.25,16496.38 3535.70,16497.14 3528.38,16498.65 3521.28,16500.92 3518.16,16502.32"/>
        <lane id="28484384#4.553_1" index="1" speed="27.78" length="28.04" shape="3543.25,16493.18 3542.99,16493.18 3535.21,16493.97 3527.57,16495.55 3520.13,16497.93 3516.16,16499.71"/>
        <lane id="28484384#4.553_2" index="2" speed="27.78" length="28.04" shape="3543.25,16489.98 3542.83,16489.98 3534.72,16490.80 3526.76,16492.45 3518.98,16494.94 3514.16,16497.10"/>
    </edge>
    <edge id="333403963" from="286622553" to="310347676" priority="12" type="highway.primary" spreadType="center" shape="3402.60,16456.58 3409.25,16447.74 3417.57,16440.40">
        <lane id="333403963_0" index="0" speed="27.78" length="18.34" shape="3398.88,16453.54 3405.71,16444.46 3411.68,16439.20"/>
        <lane id="333403963_1" index="1" speed="27.78" length="18.34" shape="3401.44,16455.47 3408.07,16446.65 3413.79,16441.60"/>
        <lane id="333403963_2" index="2" speed="27.78" length="18.34" shape="3403.99,16457.39 3410.43,16448.83 3415.91,16444.00"/>
        <lane id="333403963_3" index="3" speed="27.78" length="18.34" shape="3406.55,16459.31 3412.79,16451.02 3418.03,16446.40"/>
    </edge>
    <edge id="333403964" from="311003961" to="311003978" priority="12" type="highway.primary" spreadType="center" shape="3497.52,16511.47 3494.70,16515.96 3491.45,16520.14 3487.83,16524.00 3483.84,16527.49 3479.52,16530.58">
        <lane id="333403964_0" index="0" speed="27.78" length="29.06" shape="3501.32,16514.44 3498.64,16518.72 3495.10,16523.26 3491.17,16527.46 3486.82,16531.26 3479.83,16536.26"/>
        <lane id="333403964_1" index="1" speed="27.78" length="29.06" shape="3498.61,16512.74 3496.01,16516.88 3492.67,16521.18 3488.94,16525.15 3484.83,16528.75 3477.97,16533.66"/>
        <lane id="333403964_2" index="2" speed="27.78" length="29.06" shape="3495.90,16511.04 3493.39,16515.04 3490.23,16519.10 3486.72,16522.85 3482.85,16526.23 3476.11,16531.05"/>
        <lane id="333403964_3" index="3" speed="27.78" length="29.06" shape="3493.19,16509.33 3490.76,16513.20 3487.80,16517.02 3484.49,16520.54 3480.86,16523.72 3474.25,16528.45"/>
    </edge>
    <edge id="333403965" from="311003940" to="311003961" priority="12" type="highway.primary" spreadType="center" shape="3498.52,16459.87 3500.95,16465.32 3502.78,16471.01 3503.97,16476.86 3504.50,16482.80 3504.38,16488.78 3503.62,16494.69 3502.20,16500.50 3500.16,16506.12 3497.52,16511.47">
        <lane id="333403965_0" index="0" speed="27.78" length="10.36" shape="3508.92,16478.29 3509.30,16482.63 3509.17,16489.14 3508.70,16492.81"/>
        <lane id="333403965_1" index="1" speed="27.78" length="10.36" shape="3505.82,16479.63 3506.10,16482.74 3505.98,16488.90 3505.66,16491.36"/>
        <lane id="333403965_2" index="2" speed="27.78" length="10.36" shape="3502.73,16480.97 3502.90,16482.86 3502.78,16488.66 3502.62,16489.91"/>
        <lane id="333403965_3" index="3" speed="27.78" length="10.36" shape="3499.64,16482.31 3499.70,16482.97 3499.58,16488.46"/>
    </edge>
    <edge id="333403966" from="311004007" to="286622553" priority="12" type="highway.primary" spreadType="center" shape="3400.45,16509.02 3396.58,16498.79 3394.84,16488.00 3395.28,16477.08 3397.90,16466.46 3402.60,16456.58">
        <lane id="333403966_0" index="0" speed="27.78" length="10.60" shape="3390.03,16488.16 3390.50,16476.40 3391.15,16473.77"/>
        <lane id="333403966_1" index="1" speed="27.78" length="10.60" shape="3393.28,16486.99 3393.69,16476.85 3394.11,16475.16"/>
        <lane id="333403966_2" index="2" speed="27.78" length="10.60" shape="3396.53,16485.83 3396.87,16477.31 3397.06,16476.54"/>
        <lane id="333403966_3" index="3" speed="27.78" length="10.60" shape="3399.78,16484.66 3400.05,16477.94"/>
    </edge>
    <edge id="334971113" from="310347676" to="286622555" priority="12" type="highway.primary" spreadType="center" shape="3417.57,16440.40 3424.54,16436.16 3432.08,16432.97 3440.00,16430.95 3448.13,16430.12 3456.30,16430.51 3464.33,16432.09 3472.02,16434.85 3479.22,16438.71">
        <lane id="334971113_0" index="0" speed="27.78" length="57.43" shape="3418.14,16434.43 3422.35,16431.88 3430.54,16428.41 3439.16,16426.21 3448.00,16425.31 3456.88,16425.73 3465.61,16427.45 3473.98,16430.45 3478.26,16432.75"/>
        <lane id="334971113_1" index="1" speed="27.78" length="57.43" shape="3420.21,16436.92 3423.81,16434.73 3431.57,16431.45 3439.72,16429.37 3448.09,16428.52 3456.49,16428.92 3464.76,16430.54 3472.67,16433.38 3476.74,16435.57"/>
        <lane id="334971113_2" index="2" speed="27.78" length="57.43" shape="3422.27,16439.41 3425.27,16437.59 3432.59,16434.49 3440.28,16432.53 3448.17,16431.72 3456.11,16432.10 3463.90,16433.64 3471.37,16436.32 3475.22,16438.38"/>
        <lane id="334971113_3" index="3" speed="27.78" length="57.43" shape="3424.33,16441.90 3426.73,16440.44 3433.62,16437.53 3440.84,16435.69 3448.26,16434.93 3455.72,16435.29 3463.05,16436.73 3470.06,16439.25 3473.71,16441.20"/>
    </edge>
    <edge id="334971114" from="286622555" to="311003940" priority="12" type="highway.primary" spreadType="center" shape="3479.22,16438.71 3485.07,16443.00 3490.28,16448.01 3494.79,16453.66 3498.52,16459.87">
        <lane id="334971114_0" index="0" speed="27.78" length="24.84" shape="3485.16,16437.12 3488.17,16439.32 3493.83,16444.77 3498.74,16450.91 3502.50,16457.17"/>
        <lane id="334971114_1" index="1" speed="27.78" length="24.84" shape="3483.27,16439.70 3486.10,16441.77 3491.46,16446.93 3496.11,16452.74 3499.76,16458.82"/>
        <lane id="334971114_2" index="2" speed="27.78" length="24.84" shape="3481.38,16442.28 3484.04,16444.23 3489.10,16449.09 3493.47,16454.58 3497.01,16460.47"/>
        <lane id="334971114_3" index="3" speed="27.78" length="24.84" shape="3479.49,16444.86 3481.97,16446.68 3486.73,16451.25 3490.84,16456.41 3494.27,16462.11"/>
    </edge>
    <edge id="334971115" from="311003978" to="311003994" priority="12" type="highway.primary" spreadType="center" shape="3479.52,16530.58 3472.39,16534.48 3464.74,16537.28 3456.76,16538.93 3448.63,16539.39 3440.53,16538.63 3432.61,16536.71 3425.08,16533.63 3418.08,16529.47">
        <lane id="334971115_0" index="0" speed="27.78" length="8.79" shape="3458.49,16543.47 3457.38,16543.70 3448.54,16544.20 3444.81,16543.85"/>
        <lane id="334971115_1" index="1" speed="27.78" length="8.79" shape="3456.94,16540.52 3448.60,16540.99 3446.49,16540.80"/>
        <lane id="334971115_2" index="2" speed="27.78" length="8.79" shape="3455.32,16537.41 3448.66,16537.79 3448.16,16537.74"/>
        <lane id="334971115_3" index="3" speed="27.78" length="8.79" shape="3453.69,16534.30 3449.93,16534.51"/>
    </edge>
    <edge id="334971116" from="311003994" to="311004007" priority="12" type="highway.primary" spreadType="center" shape="3418.08,16529.47 3411.09,16523.66 3405.16,16516.78 3400.45,16509.02">
        <lane id="334971116_0" index="0" speed="27.78" length="24.86" shape="3411.55,16530.28 3407.71,16527.10 3401.26,16519.61 3395.25,16509.70"/>
        <lane id="334971116_1" index="1" speed="27.78" length="24.86" shape="3413.59,16527.82 3409.96,16524.81 3403.86,16517.72 3397.99,16508.04"/>
        <lane id="334971116_2" index="2" speed="27.78" length="24.86" shape="3415.64,16525.36 3412.22,16522.51 3406.46,16515.84 3400.72,16506.38"/>
        <lane id="334971116_3" index="3" speed="27.78" length="24.86" shape="3417.68,16522.90 3414.47,16520.22 3409.06,16513.95 3403.46,16504.72"/>
    </edge>
    <edge id="969449155#0" from="311003940" to="J4" priority="12" type="highway.primary" spreadType="center" shape="3498.52,16459.87 3503.66,16464.13 3509.20,16467.86 3515.08,16471.05 3521.25,16473.65 3528.40,16475.81 3535.75,16477.18 3543.21,16477.74 3544.60,16477.74">
        <lane id="969449155#0_0" index="0" speed="27.78" length="28.92" shape="3518.66,16469.08 3522.34,16470.64 3529.16,16472.70 3536.16,16474.00 3543.33,16474.54 3544.60,16474.54"/>
        <lane id="969449155#0_1" index="1" speed="27.78" length="28.92" shape="3516.55,16471.67 3521.25,16473.65 3528.40,16475.81 3535.75,16477.18 3543.21,16477.74 3544.60,16477.74"/>
        <lane id="969449155#0_2" index="2" speed="27.78" length="28.92" shape="3514.44,16474.25 3520.16,16476.66 3527.64,16478.92 3535.34,16480.36 3543.09,16480.94 3544.60,16480.94"/>
    </edge>

    <junction id="10297659115" type="dead_end" x="9572.32" y="15430.42" incLanes="" intLanes="" shape="9572.32,15430.42"/>
    <junction id="11019603161" type="dead_end" x="2347.35" y="0.00" incLanes="" intLanes="" shape="2347.35,0.00"/>
    <junction id="11019603163" type="dead_end" x="2335.50" y="0.27" incLanes="" intLanes="" shape="2335.50,0.27"/>